Version 4
SHEET 1 1384 680
WIRE 96 -96 80 -96
WIRE 336 -96 176 -96
WIRE 560 -96 496 -96
WIRE 736 -96 640 -96
WIRE 240 -16 160 -16
WIRE 640 -16 560 -16
WIRE 240 0 240 -16
WIRE 640 0 640 -16
WIRE -80 32 -400 32
WIRE 32 32 0 32
WIRE -1408 80 -1552 80
WIRE -1264 80 -1344 80
WIRE -1184 80 -1264 80
WIRE -1024 80 -1120 80
WIRE -960 80 -1024 80
WIRE 240 96 240 80
WIRE 640 96 640 80
WIRE -1552 128 -1552 80
WIRE 160 128 160 -16
WIRE -1264 144 -1264 80
WIRE -1024 144 -1024 80
WIRE -80 144 -160 144
WIRE 32 144 32 32
WIRE 32 144 0 144
WIRE 80 144 80 -96
WIRE 80 144 32 144
WIRE 128 144 80 144
WIRE 560 144 560 -16
WIRE 336 160 336 -96
WIRE 336 160 192 160
WIRE 384 160 336 160
WIRE 496 160 496 -96
WIRE 496 160 464 160
WIRE 528 160 496 160
WIRE -400 176 -400 32
WIRE 128 176 80 176
WIRE 736 176 736 -96
WIRE 736 176 592 176
WIRE 960 176 736 176
WIRE 528 192 512 192
WIRE 80 208 80 176
WIRE -1552 240 -1552 208
WIRE -1264 240 -1264 208
WIRE -1024 240 -1024 208
WIRE -160 240 -160 144
WIRE 512 240 512 192
WIRE 560 240 560 208
WIRE 160 256 160 192
WIRE -400 352 -400 256
WIRE -160 352 -160 320
FLAG -160 352 0
FLAG 240 96 0
FLAG -400 352 0
FLAG 80 208 0
FLAG 640 96 0
FLAG 512 240 0
FLAG 560 240 0
FLAG -1552 240 0
FLAG -1264 240 0
FLAG -1024 240 0
FLAG -960 80 VEE
FLAG 160 256 VEE
SYMBOL Opamps\\ADA4891 160 96 R0
SYMATTR InstName U1
SYMBOL voltage -160 224 R0
WINDOW 123 0 0 Left 0
WINDOW 39 0 0 Left 0
SYMATTR InstName V1
SYMATTR Value -0.4574
SYMBOL voltage 240 -16 R0
SYMATTR InstName V2
SYMATTR Value 12
SYMBOL voltage -400 160 R0
WINDOW 3 -373 53 Left 2
WINDOW 123 0 0 Left 0
WINDOW 39 0 0 Left 0
SYMATTR InstName V3
SYMATTR Value SINE(0.55235 0.09495 100)
SYMBOL res 16 128 R90
WINDOW 0 0 56 VBottom 2
WINDOW 3 32 56 VTop 2
SYMATTR InstName R3
SYMATTR Value 1k
SYMBOL res -96 48 R270
WINDOW 0 32 56 VTop 2
WINDOW 3 0 56 VBottom 2
SYMATTR InstName R4
SYMATTR Value 1k
SYMBOL res 192 -112 R90
WINDOW 0 0 56 VBottom 2
WINDOW 3 32 56 VTop 2
SYMATTR InstName R5
SYMATTR Value 26k3
SYMBOL Opamps\\ADA4891 560 112 R0
SYMATTR InstName U2
SYMBOL voltage 640 -16 R0
SYMATTR InstName V5
SYMATTR Value 5
SYMBOL res 480 144 R90
WINDOW 0 0 56 VBottom 2
WINDOW 3 32 56 VTop 2
SYMATTR InstName R6
SYMATTR Value 1k
SYMBOL res 656 -112 R90
WINDOW 0 0 56 VBottom 2
WINDOW 3 32 56 VTop 2
SYMATTR InstName R7
SYMATTR Value 1k
SYMBOL voltage -1552 112 R0
WINDOW 3 -415 60 Left 2
WINDOW 123 0 0 Left 0
WINDOW 39 0 0 Left 0
SYMATTR InstName V6
SYMATTR Value PULSE(0 12 0 10n 10n 250u 500u)
SYMBOL polcap -1408 96 R270
WINDOW 0 32 32 VTop 2
WINDOW 3 0 32 VBottom 2
SYMATTR InstName C1
SYMATTR Value 22µ
SYMATTR Description Capacitor
SYMATTR Type cap
SYMATTR SpiceLine V=6.3 Irms=3.10529 Rser=0.028 Lser=0 mfg="KEMET" pn="A700V226M006ATE028" type="Al electrolytic"
SYMBOL diode -1280 144 R0
SYMATTR InstName D1
SYMATTR Value 1N4148
SYMBOL diode -1120 64 R90
WINDOW 0 0 32 VBottom 2
WINDOW 3 32 32 VTop 2
SYMATTR InstName D2
SYMATTR Value 1N4148
SYMBOL polcap -1008 208 R180
WINDOW 0 24 57 Left 2
WINDOW 3 24 8 Left 2
SYMATTR InstName C2
SYMATTR Value 68µ
SYMATTR Description Capacitor
SYMATTR Type cap
SYMATTR SpiceLine V=6.3 Irms=3.10529 Rser=0.028 Lser=0 mfg="KEMET" pn="A700V226M006ATE028" type="Al electrolytic"
TEXT -958 400 Left 2 !.tran 40m
